<?xml version="1.0" encoding="UTF-8"?>

    <routes xmlns:xsi="http://www.w3.org/2001/XMLSchema-instance" xsi:noNamespaceSchemaLocation="http://sumo.dlr.de/xsd/routes_file.xsd">
        <vType id="DEFAULT_VEHTYPE" accel="2.5" decel="2.5"/>
        <flow id="flow12" color="1,1,0" begin="0" end= "3600" probability="0.1" from="in1" to="out2"/>
        <flow id="flow13" color="1,1,0" begin="0" end= "3600" probability="0.1" from="in1" to="out3"/>
        <flow id="flow14" color="1,1,0" begin="0" end= "3600" probability="0.1" from="in1" to="out4"/>

        <flow id="flow21" color="1,1,0" begin="0" end= "3600" probability="0.1" from="in2" to="out1"/>
        <flow id="flow23" color="1,1,0" begin="0" end= "3600" probability="0.1" from="in2" to="out3"/>
        <flow id="flow24" color="1,1,0" begin="0" end= "3600" probability="0.1" from="in2" to="out4"/>

        <flow id="flow31" color="1,1,0" begin="0" end= "3600" probability="0.1" from="in3" to="out1"/>
        <flow id="flow32" color="1,1,0" begin="0" end= "3600" probability="0.1" from="in3" to="out2"/>
        <flow id="flow34" color="1,1,0" begin="0" end= "3600" probability="0.1" from="in3" to="out4"/>

        <flow id="flow41" color="1,1,0" begin="0" end= "3600" probability="0.1" from="in4" to="out1"/>
        <flow id="flow42" color="1,1,0" begin="0" end= "3600" probability="0.1" from="in4" to="out2"/>
        <flow id="flow43" color="1,1,0" begin="0" end= "3600" probability="0.1" from="in4" to="out3"/>
    </routes>
    
